tests/fuzzer/corpus_json/24_columnar_05_radial_chain_10nodes.json
{
  "version": "1.0",
  "type": "input",
  "is_batch": false,
  "attributes": {
    "node": [
      "id",
      "u_rated"
    ],
    "source": [
      "id",
      "node",
      "status",
      "u_ref",
      "u_ref_angle",
      "sk",
      "rx_ratio",
      "z01_ratio"
    ],
    "line": [
      "id",
      "from_node",
      "to_node",
      "from_status",
      "to_status",
      "r1",
      "x1",
      "c1",
      "tan1",
      "r0",
      "x0",
      "c0",
      "tan0",
      "i_n"
    ],
    "sym_load": [
      "id",
      "node",
      "status",
      "type",
      "p_specified",
      "q_specified"
    ]
  },
  "data": {
    "node": [
      [
        0,
        10000.0
      ],
      [
        1,
        10000.0
      ],
      [
        2,
        10000.0
      ],
      [
        3,
        10000.0
      ],
      [
        4,
        10000.0
      ],
      [
        5,
        10000.0
      ],
      [
        6,
        10000.0
      ],
      [
        7,
        10000.0
      ],
      [
        8,
        10000.0
      ],
      [
        9,
        10000.0
      ]
    ],
    "source": [
      [
        10,
        0,
        1,
        1.0,
        0.0,
        10000000.0,
        0.1,
        1.0
      ]
    ],
    "line": [
      [
        11,
        0,
        1,
        1,
        1,
        0.1,
        0.1,
        1e-09,
        0.0,
        0.3,
        0.3,
        1e-09,
        0.0,
        400.0
      ],
      [
        12,
        1,
        2,
        1,
        1,
        0.1,
        0.1,
        1e-09,
        0.0,
        0.3,
        0.3,
        1e-09,
        0.0,
        400.0
      ],
      [
        13,
        2,
        3,
        1,
        1,
        0.1,
        0.1,
        1e-09,
        0.0,
        0.3,
        0.3,
        1e-09,
        0.0,
        400.0
      ],
      [
        14,
        3,
        4,
        1,
        1,
        0.1,
        0.1,
        1e-09,
        0.0,
        0.3,
        0.3,
        1e-09,
        0.0,
        400.0
      ],
      [
        15,
        4,
        5,
        1,
        1,
        0.1,
        0.1,
        1e-09,
        0.0,
        0.3,
        0.3,
        1e-09,
        0.0,
        400.0
      ],
      [
        16,
        5,
        6,
        1,
        1,
        0.1,
        0.1,
        1e-09,
        0.0,
        0.3,
        0.3,
        1e-09,
        0.0,
        400.0
      ],
      [
        17,
        6,
        7,
        1,
        1,
        0.1,
        0.1,
        1e-09,
        0.0,
        0.3,
        0.3,
        1e-09,
        0.0,
        400.0
      ],
      [
        18,
        7,
        8,
        1,
        1,
        0.1,
        0.1,
        1e-09,
        0.0,
        0.3,
        0.3,
        1e-09,
        0.0,
        400.0
      ],
      [
        19,
        8,
        9,
        1,
        1,
        0.1,
        0.1,
        1e-09,
        0.0,
        0.3,
        0.3,
        1e-09,
        0.0,
        400.0
      ]
    ],
    "sym_load": [
      [
        20,
        1,
        1,
        0,
        1000.0,
        500.0
      ],
      [
        21,
        2,
        1,
        0,
        1000.0,
        500.0
      ],
      [
        22,
        3,
        1,
        0,
        1000.0,
        500.0
      ],
      [
        23,
        4,
        1,
        0,
        1000.0,
        500.0
      ],
      [
        24,
        5,
        1,
        0,
        1000.0,
        500.0
      ],
      [
        25,
        6,
        1,
        0,
        1000.0,
        500.0
      ],
      [
        26,
        7,
        1,
        0,
        1000.0,
        500.0
      ],
      [
        27,
        8,
        1,
        0,
        1000.0,
        500.0
      ],
      [
        28,
        9,
        1,
        0,
        1000.0,
        500.0
      ]
    ]
  }
}
